9BW_lig.pdb
 OpenBabel07052516003D

 63 65  0  0  1  0  0  0  0  0999 V2000
  104.8700  112.1000   51.8200 C   0  0  0  0  0  0  0  0  0  0  0  0
   94.2000  113.0900   49.1600 N   0  0  0  0  0  0  0  0  0  0  0  0
   96.9000  112.1000   48.6300 O   0  0  0  0  0  0  0  0  0  0  0  0
  101.6500  110.6500   53.7900 S   0  0  0  0  0  0  0  0  0  0  0  0
   94.0000  110.6300   46.7000 C   0  0  0  0  0  0  0  0  0  0  0  0
  104.2000  110.5500   53.5800 N   0  0  0  0  0  0  0  0  0  0  0  0
   94.1200  114.3200   47.2800 O   0  0  0  0  0  0  0  0  0  0  0  0
   92.9100  111.9600   44.8200 C   0  0  0  0  0  0  0  0  0  0  0  0
   97.7300  114.2100   48.9700 N   0  0  0  0  0  0  0  0  0  0  0  0
   94.2100  111.9800   52.5500 O   0  0  0  0  0  0  0  0  0  0  0  0
   91.5200  110.3100   46.2800 C   0  0  0  0  0  0  0  0  0  0  0  0
   91.1700  113.3700   47.0100 N   0  0  0  0  0  0  0  0  0  0  0  0
  101.1900  112.6500   49.1100 C   0  0  0  0  0  0  0  0  0  0  0  0
   99.6900  113.5600   50.8900 C   0  0  0  0  0  0  0  0  0  0  0  0
  101.9600  111.9600   50.0900 C   0  0  0  0  0  0  0  0  0  0  0  0
  100.6000  113.0100   51.8300 C   0  0  0  0  0  0  0  0  0  0  0  0
  103.1700  110.0200   54.2700 C   0  0  0  0  0  0  0  0  0  0  0  0
   93.6600  113.3600   47.8900 C   0  0  0  0  0  0  0  0  0  0  0  0
  100.0100  113.4200   49.5000 C   0  0  0  0  0  0  0  0  0  0  0  0
   96.7300  113.2400   49.0200 C   0  0  0  0  0  0  0  0  0  0  0  0
   95.3200  113.5600   51.1400 C   0  0  0  0  0  0  0  0  0  0  0  0
  103.7900  111.3400   52.5700 C   0  0  0  0  0  0  0  0  0  0  0  0
  101.6900  112.1800   51.4600 C   0  0  0  0  0  0  0  0  0  0  0  0
  102.4300  111.4000   52.4700 C   0  0  0  0  0  0  0  0  0  0  0  0
   92.3900  112.5000   47.3000 C   0  0  2  0  0  0  0  0  0  0  0  0
   92.7100  111.3400   46.2400 C   0  0  0  0  0  0  0  0  0  0  0  0
   94.7400  112.1200   51.2500 C   0  0  2  0  0  0  0  0  0  0  0  0
   93.6100  112.1400   50.2100 C   0  0  0  0  0  0  0  0  0  0  0  0
   99.0700  114.0300   48.4600 C   0  0  2  0  0  0  0  0  0  0  0  0
   99.6400  115.3400   47.8300 C   0  0  0  0  0  0  0  0  0  0  0  0
   95.4600  113.8300   49.6200 C   0  0  2  0  0  0  0  0  0  0  0  0
   90.4700  112.8700   46.4500 H   0  0  0  0  0  0  0  0  0  0  0  0
   91.5200  114.0800   46.3600 H   0  0  0  0  0  0  0  0  0  0  0  0
   97.5400  115.0400   49.5200 H   0  0  0  0  0  0  0  0  0  0  0  0
  105.3500  111.4200   51.1100 H   0  0  0  0  0  0  0  0  0  0  0  0
  104.3400  112.8700   51.2500 H   0  0  0  0  0  0  0  0  0  0  0  0
  105.6400  112.6100   52.4200 H   0  0  0  0  0  0  0  0  0  0  0  0
   93.9700  110.2900   47.7400 H   0  0  0  0  0  0  0  0  0  0  0  0
   94.0900  109.7800   46.0100 H   0  0  0  0  0  0  0  0  0  0  0  0
   94.9000  111.2300   46.5300 H   0  0  0  0  0  0  0  0  0  0  0  0
   99.0300  115.7200   47.0000 H   0  0  0  0  0  0  0  0  0  0  0  0
   99.9100  116.1700   48.4900 H   0  0  0  0  0  0  0  0  0  0  0  0
  100.6100  115.0500   47.4000 H   0  0  0  0  0  0  0  0  0  0  0  0
   90.5700  110.7900   46.0100 H   0  0  0  0  0  0  0  0  0  0  0  0
   91.7200  109.4900   45.5800 H   0  0  0  0  0  0  0  0  0  0  0  0
   91.5200  109.9800   47.3200 H   0  0  0  0  0  0  0  0  0  0  0  0
   96.3000  113.6500   51.6200 H   0  0  0  0  0  0  0  0  0  0  0  0
   94.6200  114.2400   51.6400 H   0  0  0  0  0  0  0  0  0  0  0  0
   92.0800  112.6000   44.4900 H   0  0  0  0  0  0  0  0  0  0  0  0
   93.8300  112.5500   44.7200 H   0  0  0  0  0  0  0  0  0  0  0  0
   93.0700  111.2200   44.0300 H   0  0  0  0  0  0  0  0  0  0  0  0
   92.0400  111.9900   48.2000 H   0  0  0  0  0  0  0  0  0  0  0  0
   95.5400  111.4200   51.0000 H   0  0  0  0  0  0  0  0  0  0  0  0
   98.9600  113.2900   47.6700 H   0  0  0  0  0  0  0  0  0  0  0  0
   95.3200  114.8800   49.3400 H   0  0  0  0  0  0  0  0  0  0  0  0
  101.5400  112.6900   48.0800 H   0  0  0  0  0  0  0  0  0  0  0  0
   98.8100  114.0900   51.2300 H   0  0  0  0  0  0  0  0  0  0  0  0
  102.8400  111.3500   49.9100 H   0  0  0  0  0  0  0  0  0  0  0  0
  100.4100  113.1500   52.8900 H   0  0  0  0  0  0  0  0  0  0  0  0
  103.1700  109.3900   55.1500 H   0  0  0  0  0  0  0  0  0  0  0  0
   93.5000  111.1000   49.8800 H   0  0  0  0  0  0  0  0  0  0  0  0
   92.6800  112.5400   50.6400 H   0  0  0  0  0  0  0  0  0  0  0  0
   93.8300  111.0900   52.6600 H   0  0  0  0  0  0  0  0  0  0  0  0
  1 37  1  0  0  0  0
  1 22  1  0  0  0  0
  2 31  1  0  0  0  0
  2 28  1  0  0  0  0
  3 20  2  0  0  0  0
  4 17  1  0  0  0  0
  5 38  1  0  0  0  0
  6 17  2  0  0  0  0
  7 18  2  0  0  0  0
  8 26  1  0  0  0  0
  9 20  1  0  0  0  0
  9 34  1  0  0  0  0
 10 63  1  0  0  0  0
 11 46  1  0  0  0  0
 12 25  1  0  0  0  0
 13 19  2  0  0  0  0
 13 15  1  0  0  0  0
 14 57  1  0  0  0  0
 14 16  2  0  0  0  0
 15 23  2  0  0  0  0
 16 59  1  0  0  0  0
 17 60  1  0  0  0  0
 18  2  1  0  0  0  0
 19 14  1  0  0  0  0
 20 31  1  0  0  0  0
 21 27  1  0  0  0  0
 21 47  1  0  0  0  0
 21 48  1  0  0  0  0
 22  6  1  0  0  0  0
 23 16  1  0  0  0  0
 23 24  1  0  0  0  0
 24 22  2  0  0  0  0
 24  4  1  0  0  0  0
 25 18  1  0  0  0  0
 25 52  1  1  0  0  0
 26 11  1  0  0  0  0
 26  5  1  0  0  0  0
 26 25  1  0  0  0  0
 27 53  1  6  0  0  0
 27 10  1  0  0  0  0
 28 62  1  0  0  0  0
 28 27  1  0  0  0  0
 29 54  1  6  0  0  0
 29  9  1  0  0  0  0
 29 19  1  0  0  0  0
 30 29  1  0  0  0  0
 30 42  1  0  0  0  0
 31 55  1  6  0  0  0
 31 21  1  0  0  0  0
 32 12  1  0  0  0  0
 33 12  1  0  0  0  0
 35  1  1  0  0  0  0
 36  1  1  0  0  0  0
 39  5  1  0  0  0  0
 40  5  1  0  0  0  0
 41 30  1  0  0  0  0
 43 30  1  0  0  0  0
 44 11  1  0  0  0  0
 45 11  1  0  0  0  0
 49  8  1  0  0  0  0
 50  8  1  0  0  0  0
 51  8  1  0  0  0  0
 56 13  1  0  0  0  0
 58 15  1  0  0  0  0
 61 28  1  0  0  0  0
M  END
$$$$
